*Heading
** Job name: Job-1 Model name: Model-1
** Generated by: Abaqus/CAE 6.14-1
*Preprint, echo=NO, model=NO, history=NO, contact=NO
**
** PARTS
**
*Part, name=Part-1
*End Part
**  
**
** ASSEMBLY
**
*Assembly, name=Assembly
**  
*Instance, name=Part-1-1, part=Part-1
*Node
      1,   0.45924443, -0.268892288,           0.
      2,   1.22201025,  -1.02789748,           0.
      3,           0.,           0.,           0.
      4,          1.5,         -1.5,           0.
      5,           4.,          -6.,           0.
      6,           6.,          -8.,           0.
      7,   6.50857878,  -8.56906414,           0.
      8,   6.84989548,  -9.25169849,           0.
      9,           7.,         -10.,           0.
     10,           7.,         -11.,           0.
     11,           0.,         -10.,           0.
     12,  0.871032298, -0.614117682,           0.
     13,         1.75,  -1.95000005,           0.
     14,           2.,   -2.4000001,           0.
     15,         2.25,   -2.8499999,           0.
     16,          2.5,  -3.29999995,           0.
     17,         2.75,        -3.75,           0.
     18,           3.,  -4.19999981,           0.
     19,         3.25,   -4.6500001,           0.
     20,          3.5,   -5.0999999,           0.
** ... 420 like lines cut
*Element, type=C3D6
1, 201, 206, 209, 421, 426, 429
2, 182, 186, 200, 402, 406, 420
*Element, type=C3D8R
  3,  80,  91,  53,  52, 300, 311, 273, 272
  4,  81,  89,  50,  49, 301, 309, 270, 269
  5, 106, 105, 144, 145, 326, 325, 364, 365
  6,  27,   9,  70, 213, 247, 229, 290, 433
  7, 111, 114,  63,  69, 331, 334, 283, 289
  8,  82,  93,  56,  55, 302, 313, 276, 275
  9,  99, 104, 140, 141, 319, 324, 360, 361
 10,  31,  30,  69,  63, 251, 250, 289, 283
 11, 111,  69, 214, 215, 331, 289, 434, 435
 12,  19, 100, 105,  20, 239, 320, 325, 240
 13, 177, 144, 138, 217, 397, 364, 358, 437
 14,  21, 106,  68,   5, 241, 326, 288, 225
 15,  49,  48,  83,  81, 269, 268, 303, 301
 16,  66,  67, 121, 109, 286, 287, 341, 329
 17,  85,  84,  47,  46, 305, 304, 267, 266
 18, 180, 151, 121, 123, 400, 371, 341, 343
 19,  62,  40,  39,  61, 282, 260, 259, 281
 20,  43,  42,  79,  87, 263, 262, 299, 307
 21, 108,  76,  75, 118, 328, 296, 295, 338
 22, 120, 124,  78,  65, 340, 344, 298, 285
** ... 168 like lines cut
*End Instance
**  
*End Assembly
** 
** MATERIALS
** 
*Material, name=steel
*Density
7800.,
*Elastic
 2.07e+06, 0.03
